data_image0
_chemical_formula_structural       C126
_chemical_formula_sum              "C126"
_cell_length_a       35.15844057115872
_cell_length_b       35.15844057115871
_cell_length_c       30.000000000000007
_cell_angle_alpha    90.0
_cell_angle_beta     90.0
_cell_angle_gamma    119.99999999999999

_space_group_name_H-M_alt    "P 1"
_space_group_IT_number       1

loop_
  _space_group_symop_operation_xyz
  'x, y, z'

loop_
  _atom_site_type_symbol
  _atom_site_label
  _atom_site_symmetry_multiplicity
  _atom_site_fract_x
  _atom_site_fract_y
  _atom_site_fract_z
  _atom_site_occupancy
  C   C1        1.0  0.4864468321912037  0.7846994294397314  0.55  1.0000
  C   C2        1.0  0.6029170600930972  0.00918076895224578  0.55  1.0000
  C   C3        1.0  0.5290155321666807  0.15615610888298398  0.55  1.0000
  C   C4        1.0  0.6454857600685742  0.38063744839549823  0.55  1.0000
  C   C5        1.0  0.8661824344706442  0.4713212897783059  0.55  1.0000
  C   C6        1.0  0.9775295836099521  0.6940155880569235  0.55  1.0000
  C   C7        1.0  0.8475167505906894  0.7846994294397308  0.55  1.0000
  C   C8        1.0  0.955527862201311  0.009180768952245061  0.55  1.0000
  C   C9        1.0  0.825283522390335  0.1013028914385068  0.55  1.0000
  C   C10       1.0  0.9367382321092113  0.3242123108762594  0.55  1.0000
  C   C11       1.0  0.1544030086498248  0.4713212897783061  0.55  1.0000
  C   C12       1.0  0.26575015778913347  0.694015588056924  0.55  1.0000
  C   C13       1.0  0.19519436015056565  0.8411245669589701  0.55  1.0000
  C   C14       1.0  0.30664906986944285  0.06403398639672281  0.55  1.0000
  C   C15       1.0  0.1764047300584656  0.15615610888298348  0.55  1.0000
  C   C16       1.0  0.2844158416690869  0.38063744839549796  0.55  1.0000
  C   C17       1.0  0.662254665808267  0.5826684389176144  0.55  1.0000
  C   C18       1.0  0.46967792645151  0.5826684389176148  0.55  1.0000
  C   C19       1.0  0.5784888639216962  0.9608376122134283  0.55  1.0000
  C   C20       1.0  0.5584941951872928  0.9190660074058644  0.55  1.0000
  C   C21       1.0  0.5382892705879394  0.8773035364369853  0.55  1.0000
  C   C22       1.0  0.5156107142514835  0.8338600928555056  0.55  1.0000
  C   C23       1.0  0.47396152883788045  0.6252835134177995  0.55  1.0000
  C   C24       1.0  0.48051782125650777  0.6647020690490857  0.55  1.0000
  C   C25       1.0  0.4867861867514079  0.7039920879586543  0.55  1.0000
  C   C26       1.0  0.4902632972329245  0.7435759827219237  0.55  1.0000
  C   C27       1.0  0.31456260133091707  0.7152500150821512  0.55  1.0000
  C   C28       1.0  0.35514522721549446  0.7330366679970609  0.55  1.0000
  C   C29       1.0  0.39567310319026966  0.7503658993873323  0.55  1.0000
  C   C30       1.0  0.43773717680619006  0.7672009802684875  0.55  1.0000
  C   C31       1.0  0.5468348331673782  0.1255157533737876  0.55  1.0000
  C   C32       1.0  0.5599248401369035  0.09782695188057876  0.55  1.0000
  C   C33       1.0  0.5723284981407188  0.06959156203401531  0.55  1.0000
  C   C34       1.0  0.585580221278096  0.04046104853416845  0.55  1.0000
  C   C35       1.0  0.7761438366564143  0.07846770302974568  0.55  1.0000
  C   C36       1.0  0.7351805766138092  0.06123761798072366  0.55  1.0000
  C   C37       1.0  0.694330779870867  0.04502463686692363  0.55  1.0000
  C   C38       1.0  0.6518495565680812  0.02863889177181836  0.55  1.0000
  C   C39       1.0  0.6173449158085716  0.3323887471001773  0.55  1.0000
  C   C40       1.0  0.5957832938272101  0.2906570079788697  0.55  1.0000
  C   C41       1.0  0.5755302297269831  0.2488957617524913  0.55  1.0000
  C   C42       1.0  0.5544154712733075  0.20541253276204416  0.55  1.0000
  C   C43       1.0  0.3557887556033636  0.0868691748054839  0.55  1.0000
  C   C44       1.0  0.3967520156459687  0.10409925985450597  0.55  1.0000
  C   C45       1.0  0.43760181238891094  0.12031224096830605  0.55  1.0000
  C   C46       1.0  0.48008303569169675  0.13669798606341135  0.55  1.0000
  C   C47       1.0  0.8173699909288608  0.4500868627530787  0.55  1.0000
  C   C48       1.0  0.7767873650442833  0.4323002098381689  0.55  1.0000
  C   C49       1.0  0.7362594890695082  0.4149709784478975  0.55  1.0000
  C   C50       1.0  0.6941954154535879  0.3981358975667423  0.55  1.0000
  C   C51       1.0  0.6579710634218967  0.5400533644174297  0.55  1.0000
  C   C52       1.0  0.6514147710032695  0.5006348087861435  0.55  1.0000
  C   C53       1.0  0.6451464055083698  0.46134478987657507  0.55  1.0000
  C   C54       1.0  0.6416692950268531  0.4217608951133058  0.55  1.0000
  C   C55       1.0  0.9171576641457282  0.35299858503024  0.55  1.0000
  C   C56       1.0  0.9043249815512538  0.3802161186492749  0.55  1.0000
  C   C57       1.0  0.8931678010354869  0.40875418147244724  0.55  1.0000
  C   C58       1.0  0.8817510887582112  0.43862802045846705  0.55  1.0000
  C   C59       1.0  0.9570478850058618  0.6452649665318495  0.55  1.0000
  C   C60       1.0  0.9379169054717931  0.6042663589858936  0.55  1.0000
  C   C61       1.0  0.9172606586037  0.5632714213207142  0.55  1.0000
  C   C62       1.0  0.8942082945396364  0.5205854431204686  0.55  1.0000
  C   C63       1.0  0.14706893018653067  0.8114293828377408  0.55  1.0000
  C   C64       1.0  0.10701740765198497  0.7842167674806644  0.55  1.0000
  C   C65       1.0  0.06723271007836229  0.7560154973349175  0.55  1.0000
  C   C66       1.0  0.02579150721735779  0.7267088573767625  0.55  1.0000
  C   C67       1.0  0.8790174991769708  0.7678831961105717  0.55  1.0000
  C   C68       1.0  0.9029855239438472  0.7514166312796425  0.55  1.0000
  C   C69       1.0  0.9258482921369586  0.7337091005488273  0.55  1.0000
  C   C70       1.0  0.9492724405218472  0.714841214014043  0.55  1.0000
  C   C71       1.0  0.9326764748066215  0.9608639998004406  0.55  1.0000
  C   C72       1.0  0.9108937835633517  0.919092252205285  0.55  1.0000
  C   C73       1.0  0.8889421347311091  0.8773200034295812  0.55  1.0000
  C   C74       1.0  0.8675135319461837  0.833860092855505  0.55  1.0000
  C   C75       1.0  0.6999026861673159  0.6258098251795972  0.55  1.0000
  C   C76       1.0  0.732768647650306  0.6652255328510086  0.55  1.0000
  C   C77       1.0  0.7660435511718859  0.7043205292019041  0.55  1.0000
  C   C78       1.0  0.8025768388311609  0.7435759827219233  0.55  1.0000
  C   C79       1.0  0.852573791156842  0.07957296940648287  0.55  1.0000
  C   C80       1.0  0.8763016319783349  0.06233690357853824  0.55  1.0000
  C   C81       1.0  0.9005731742415505  0.04571437076467636  0.55  1.0000
  C   C82       1.0  0.9260534885458998  0.028638891771817818  0.55  1.0000
  C   C83       1.0  0.1281726817598079  0.12459758609148473  0.55  1.0000
  C   C84       1.0  0.08739264167144878  0.09691375295309503  0.55  1.0000
  C   C85       1.0  0.04666925457776916  0.06901858604221689  0.55  1.0000
  C   C86       1.0  0.004144980598235204  0.04046104853416768  0.55  1.0000
  C   C87       1.0  0.9126314694082595  0.27494815753409674  0.55  1.0000
  C   C88       1.0  0.8921783865499961  0.23404767693888806  0.55  1.0000
  C   C89       1.0  0.8715353239697303  0.19315085744088403  0.55  1.0000
  C   C90       1.0  0.8499155990614163  0.15056704478066948  0.55  1.0000
  C   C91       1.0  0.10704761499307192  0.4387269406196404  0.55  1.0000
  C   C92       1.0  0.06731160574634498  0.410326426608641  0.55  1.0000
  C   C93       1.0  0.027536237189194734  0.3820900329782809  0.55  1.0000
  C   C94       1.0  0.9857793899821113  0.35397178510471133  0.55  1.0000
  C   C95       1.0  0.2529150930828056  0.3974536817246572  0.55  1.0000
  C   C96       1.0  0.22894706831592918  0.4139202465555864  0.55  1.0000
  C   C97       1.0  0.20608430012281798  0.431627777286402  0.55  1.0000
  C   C98       1.0  0.18266015173792952  0.45049566382118633  0.55  1.0000
  C   C99       1.0  0.2385318628084091  0.6452649665318498  0.55  1.0000
  C   C100      1.0  0.2166585496752043  0.604266358985894  0.55  1.0000
  C   C101      1.0  0.19593055321559022  0.5632714213207144  0.55  1.0000
  C   C102      1.0  0.17564130192299515  0.5205854431204688  0.55  1.0000
  C   C103      1.0  0.21477492811404852  0.8123382928049894  0.55  1.0000
  C   C104      1.0  0.22760761070852312  0.7851207591859546  0.55  1.0000
  C   C105      1.0  0.23876479122429037  0.7565826963627824  0.55  1.0000
  C   C106      1.0  0.2501815035015664  0.7267088573767627  0.55  1.0000
  C   C107      1.0  0.28254230716849094  0.014769833054560255  0.55  1.0000
  C   C108      1.0  0.26208922431022746  0.9738693524593515  0.55  1.0000
  C   C109      1.0  0.24144616172996128  0.9329725329613474  0.55  1.0000
  C   C110      1.0  0.21982643682164718  0.8903887203011328  0.55  1.0000
  C   C111      1.0  0.20627188421669018  0.13731544156123787  0.55  1.0000
  C   C112      1.0  0.23104138922044617  0.12124731015319594  0.55  1.0000
  C   C113      1.0  0.2553359759492492  0.10465061524852402  0.55  1.0000
  C   C114      1.0  0.2797578771823945  0.08638842265124001  0.55  1.0000
  C   C115      1.0  0.2653715578064956  0.33241513468719003  0.55  1.0000
  C   C116      1.0  0.2451956854964403  0.29068325277829055  0.55  1.0000
  C   C117      1.0  0.22329340090757174  0.24891222874508728  0.55  1.0000
  C   C118      1.0  0.20026121483089904  0.2054125327620437  0.55  1.0000
  C   C119      1.0  0.43202990609246106  0.5395270526556321  0.55  1.0000
  C   C120      1.0  0.3991639446094708  0.5001113449842204  0.55  1.0000
  C   C121      1.0  0.3658890410878908  0.46101634863332486  0.55  1.0000
  C   C122      1.0  0.32935575342861545  0.42176089511330556  0.55  1.0000
  C   C123      1.0  0.5126452249038183  0.5832750192417414  0.55  1.0000
  C   C124      1.0  0.5479103875898171  0.583271736935418  0.55  1.0000
  C   C125      1.0  0.5830616517507619  0.5830469712063604  0.55  1.0000
  C   C126      1.0  0.619590657518022  0.5826684389176144  0.55  1.0000
